7

Ta         0.00000        0.00000        0.00000
O         -0.00000       -1.90000        0.00000
O         -1.90000        0.00000        0.00000
O         -0.00000       -0.00000       -1.90000
O          0.00000        0.00000        1.90000
O          0.00000        1.90000        0.00000
O          1.90000        0.00000        0.00000
